4busDYBal_VLL_Node.Txt

PHASE-PHASE VOLTAGES BY BUS & NODE

Bus       Node    V (kV)    Angle      p.u.   Base kV

SOURCEBUS 1-2     4.3842 /_   81.4         0     0.000
   -      2-3     10.304 /_  119.9         0     0.000
   -      3-1     14.005 /_  -71.3         0     0.000
N2 ...... 1-2     19.068 /_   75.1         0     0.000
   -      2-3     11.082 /_  116.8         0     0.000
   -      3-1     28.315 /_  -89.8         0     0.000
N3 ...... 1-2     48.239 /_  150.2         0     0.000
   -      2-3     39.637 /_   70.7         0     0.000
   -      3-1     67.784 /_  -64.9         0     0.000
N4 ...... 1-2      61.23 /_ -114.5         0     0.000
   -      2-3      79.81 /_ -119.1         0     0.000
   -      3-1     140.93 /_   62.9         0     0.000
